This is my first file to test working.
New line.
